# generated using pymatgen
data_Li2MnO2
_symmetry_space_group_name_H-M   'P 1'
_cell_length_a   3.19500000
_cell_length_b   3.19500000
_cell_length_c   5.30300000
_cell_angle_alpha   90.00000000
_cell_angle_beta   90.00000000
_cell_angle_gamma   120.00000000
_symmetry_Int_Tables_number   1
_chemical_formula_structural   Li2MnO2
_chemical_formula_sum   'Li2 Mn1 O2'
_cell_volume   46.88068878
_cell_formula_units_Z   1
loop_
 _symmetry_equiv_pos_site_id
 _symmetry_equiv_pos_as_xyz
  1  'x, y, z'
loop_
 _atom_type_symbol
 _atom_type_oxidation_number
  Li+  1.0
  Mn2+  2.0
  O2-  -2.0
loop_
 _atom_site_type_symbol
 _atom_site_label
 _atom_site_symmetry_multiplicity
 _atom_site_fract_x
 _atom_site_fract_y
 _atom_site_fract_z
 _atom_site_occupancy
  Li+  Li0  1  0.33333333  0.66666667  0.60900000  1.0
  Li+  Li1  1  0.66666667  0.33333333  0.39100000  1.0
  Mn2+  Mn2  1  0.00000000  0.00000000  0.00000000  1.0
  O2-  O3  1  0.66666667  0.33333333  0.75100000  1.0
  O2-  O4  1  0.33333333  0.66666667  0.24900000  1.0
