# generated using pymatgen
data_Li2O
_symmetry_space_group_name_H-M   'P 1'
_cell_length_a   4.66000000
_cell_length_b   4.66000000
_cell_length_c   4.66000000
_cell_angle_alpha   90.00000000
_cell_angle_beta   90.00000000
_cell_angle_gamma   90.00000000
_symmetry_Int_Tables_number   1
_chemical_formula_structural   Li2O
_chemical_formula_sum   'Li8 O4'
_cell_volume   101.19469600
_cell_formula_units_Z   4
loop_
 _symmetry_equiv_pos_site_id
 _symmetry_equiv_pos_as_xyz
  1  'x, y, z'
loop_
 _atom_type_symbol
 _atom_type_oxidation_number
  Li0+  0.0
  O0+  0.0
loop_
 _atom_site_type_symbol
 _atom_site_label
 _atom_site_symmetry_multiplicity
 _atom_site_fract_x
 _atom_site_fract_y
 _atom_site_fract_z
 _atom_site_occupancy
  Li0+  Li0  1  0.25000000  0.25000000  0.75000000  1.0
  Li0+  Li1  1  0.25000000  0.75000000  0.25000000  1.0
  Li0+  Li2  1  0.75000000  0.25000000  0.25000000  1.0
  Li0+  Li3  1  0.75000000  0.75000000  0.75000000  1.0
  Li0+  Li4  1  0.75000000  0.75000000  0.25000000  1.0
  Li0+  Li5  1  0.75000000  0.25000000  0.75000000  1.0
  Li0+  Li6  1  0.25000000  0.75000000  0.75000000  1.0
  Li0+  Li7  1  0.25000000  0.25000000  0.25000000  1.0
  O0+  O8  1  0.00000000  0.00000000  0.00000000  1.0
  O0+  O9  1  0.00000000  0.50000000  0.50000000  1.0
  O0+  O10  1  0.50000000  0.00000000  0.50000000  1.0
  O0+  O11  1  0.50000000  0.50000000  0.00000000  1.0
