# generated using pymatgen
data_LiF
_symmetry_space_group_name_H-M   'P 1'
_cell_length_a   4.06700000
_cell_length_b   4.06700000
_cell_length_c   4.06700000
_cell_angle_alpha   90.00000000
_cell_angle_beta   90.00000000
_cell_angle_gamma   90.00000000
_symmetry_Int_Tables_number   1
_chemical_formula_structural   LiF
_chemical_formula_sum   'Li4 F4'
_cell_volume   67.27016876
_cell_formula_units_Z   4
loop_
 _symmetry_equiv_pos_site_id
 _symmetry_equiv_pos_as_xyz
  1  'x, y, z'
loop_
 _atom_type_symbol
 _atom_type_oxidation_number
  Li0+  0.0
  F0+  0.0
loop_
 _atom_site_type_symbol
 _atom_site_label
 _atom_site_symmetry_multiplicity
 _atom_site_fract_x
 _atom_site_fract_y
 _atom_site_fract_z
 _atom_site_occupancy
  Li0+  Li0  1  0.00000000  0.00000000  0.00000000  1.0
  Li0+  Li1  1  0.00000000  0.50000000  0.50000000  1.0
  Li0+  Li2  1  0.50000000  0.00000000  0.50000000  1.0
  Li0+  Li3  1  0.50000000  0.50000000  0.00000000  1.0
  F0+  F4  1  0.50000000  0.50000000  0.50000000  1.0
  F0+  F5  1  0.50000000  0.00000000  0.00000000  1.0
  F0+  F6  1  0.00000000  0.50000000  0.00000000  1.0
  F0+  F7  1  0.00000000  0.00000000  0.50000000  1.0
