# generated using pymatgen
data_LiMn2O4
_symmetry_space_group_name_H-M   'P 1'
_cell_length_a   8.23600000
_cell_length_b   8.23600000
_cell_length_c   8.23600000
_cell_angle_alpha   90.00000000
_cell_angle_beta   90.00000000
_cell_angle_gamma   90.00000000
_symmetry_Int_Tables_number   1
_chemical_formula_structural   LiMn2O4
_chemical_formula_sum   'Li8 Mn16 O32'
_cell_volume   558.66184826
_cell_formula_units_Z   8
loop_
 _symmetry_equiv_pos_site_id
 _symmetry_equiv_pos_as_xyz
  1  'x, y, z'
loop_
 _atom_type_symbol
 _atom_type_oxidation_number
  Li+  1.0
  Mn3.5+  3.5
  O2-  -2.0
loop_
 _atom_site_type_symbol
 _atom_site_label
 _atom_site_symmetry_multiplicity
 _atom_site_fract_x
 _atom_site_fract_y
 _atom_site_fract_z
 _atom_site_occupancy
  Li+  Li0  1  0.25000000  0.25000000  0.25000000  1.0
  Li+  Li1  1  0.00000000  0.00000000  0.00000000  1.0
  Li+  Li2  1  0.25000000  0.75000000  0.75000000  1.0
  Li+  Li3  1  0.00000000  0.50000000  0.50000000  1.0
  Li+  Li4  1  0.75000000  0.25000000  0.75000000  1.0
  Li+  Li5  1  0.50000000  0.00000000  0.50000000  1.0
  Li+  Li6  1  0.75000000  0.75000000  0.25000000  1.0
  Li+  Li7  1  0.50000000  0.50000000  0.00000000  1.0
  Mn3.5+  Mn8  1  0.87500000  0.87500000  0.62500000  1.0
  Mn3.5+  Mn9  1  0.87500000  0.62500000  0.87500000  1.0
  Mn3.5+  Mn10  1  0.62500000  0.87500000  0.87500000  1.0
  Mn3.5+  Mn11  1  0.62500000  0.62500000  0.62500000  1.0
  Mn3.5+  Mn12  1  0.37500000  0.37500000  0.62500000  1.0
  Mn3.5+  Mn13  1  0.37500000  0.62500000  0.37500000  1.0
  Mn3.5+  Mn14  1  0.62500000  0.37500000  0.37500000  1.0
  Mn3.5+  Mn15  1  0.87500000  0.37500000  0.12500000  1.0
  Mn3.5+  Mn16  1  0.87500000  0.12500000  0.37500000  1.0
  Mn3.5+  Mn17  1  0.62500000  0.12500000  0.12500000  1.0
  Mn3.5+  Mn18  1  0.37500000  0.87500000  0.12500000  1.0
  Mn3.5+  Mn19  1  0.37500000  0.12500000  0.87500000  1.0
  Mn3.5+  Mn20  1  0.12500000  0.87500000  0.37500000  1.0
  Mn3.5+  Mn21  1  0.12500000  0.62500000  0.12500000  1.0
  Mn3.5+  Mn22  1  0.12500000  0.37500000  0.87500000  1.0
  Mn3.5+  Mn23  1  0.12500000  0.12500000  0.62500000  1.0
  O2-  O24  1  0.63800000  0.63800000  0.86200000  1.0
  O2-  O25  1  0.63800000  0.86200000  0.63800000  1.0
  O2-  O26  1  0.86200000  0.63800000  0.63800000  1.0
  O2-  O27  1  0.86200000  0.86200000  0.86200000  1.0
  O2-  O28  1  0.61200000  0.61200000  0.38800000  1.0
  O2-  O29  1  0.61200000  0.38800000  0.61200000  1.0
  O2-  O30  1  0.38800000  0.61200000  0.61200000  1.0
  O2-  O31  1  0.38800000  0.38800000  0.38800000  1.0
  O2-  O32  1  0.63800000  0.13800000  0.36200000  1.0
  O2-  O33  1  0.63800000  0.36200000  0.13800000  1.0
  O2-  O34  1  0.86200000  0.13800000  0.13800000  1.0
  O2-  O35  1  0.86200000  0.36200000  0.36200000  1.0
  O2-  O36  1  0.61200000  0.11200000  0.88800000  1.0
  O2-  O37  1  0.61200000  0.88800000  0.11200000  1.0
  O2-  O38  1  0.38800000  0.11200000  0.11200000  1.0
  O2-  O39  1  0.38800000  0.88800000  0.88800000  1.0
  O2-  O40  1  0.13800000  0.63800000  0.36200000  1.0
  O2-  O41  1  0.13800000  0.86200000  0.13800000  1.0
  O2-  O42  1  0.36200000  0.63800000  0.13800000  1.0
  O2-  O43  1  0.36200000  0.86200000  0.36200000  1.0
  O2-  O44  1  0.11200000  0.61200000  0.88800000  1.0
  O2-  O45  1  0.11200000  0.38800000  0.11200000  1.0
  O2-  O46  1  0.88800000  0.61200000  0.11200000  1.0
  O2-  O47  1  0.88800000  0.38800000  0.88800000  1.0
  O2-  O48  1  0.13800000  0.13800000  0.86200000  1.0
  O2-  O49  1  0.13800000  0.36200000  0.63800000  1.0
  O2-  O50  1  0.36200000  0.13800000  0.63800000  1.0
  O2-  O51  1  0.36200000  0.36200000  0.86200000  1.0
  O2-  O52  1  0.11200000  0.11200000  0.38800000  1.0
  O2-  O53  1  0.11200000  0.88800000  0.61200000  1.0
  O2-  O54  1  0.88800000  0.11200000  0.61200000  1.0
  O2-  O55  1  0.88800000  0.88800000  0.38800000  1.0
