# generated using pymatgen
data_MnO2
_symmetry_space_group_name_H-M   'P 1'
_cell_length_a   4.39700000
_cell_length_b   4.39700000
_cell_length_c   2.86900000
_cell_angle_alpha   90.00000000
_cell_angle_beta   90.00000000
_cell_angle_gamma   90.00000000
_symmetry_Int_Tables_number   1
_chemical_formula_structural   MnO2
_chemical_formula_sum   'Mn2 O4'
_cell_volume   55.46812422
_cell_formula_units_Z   2
loop_
 _symmetry_equiv_pos_site_id
 _symmetry_equiv_pos_as_xyz
  1  'x, y, z'
loop_
 _atom_type_symbol
 _atom_type_oxidation_number
  Mn4+  4.0
  O2-  -2.0
loop_
 _atom_site_type_symbol
 _atom_site_label
 _atom_site_symmetry_multiplicity
 _atom_site_fract_x
 _atom_site_fract_y
 _atom_site_fract_z
 _atom_site_occupancy
  Mn4+  Mn0  1  0.50000000  0.50000000  0.50000000  1.0
  Mn4+  Mn1  1  0.00000000  0.00000000  0.00000000  1.0
  O2-  O2  1  0.19500000  0.80500000  0.50000000  1.0
  O2-  O3  1  0.80500000  0.19500000  0.50000000  1.0
  O2-  O4  1  0.30500000  0.30500000  0.00000000  1.0
  O2-  O5  1  0.69500000  0.69500000  0.00000000  1.0
