# generated using pymatgen
data_TiMnO3
_symmetry_space_group_name_H-M   'P 1'
_cell_length_a   5.48100000
_cell_length_b   5.48100000
_cell_length_c   5.48100000
_cell_angle_alpha   56.60000000
_cell_angle_beta   56.60000000
_cell_angle_gamma   56.60000000
_symmetry_Int_Tables_number   1
_chemical_formula_structural   TiMnO3
_chemical_formula_sum   'Ti2 Mn2 O6'
_cell_volume   107.28444411
_cell_formula_units_Z   2
loop_
 _symmetry_equiv_pos_site_id
 _symmetry_equiv_pos_as_xyz
  1  'x, y, z'
loop_
 _atom_type_symbol
 _atom_type_oxidation_number
  Ti0+  0.0
  Mn0+  0.0
  O0+  0.0
loop_
 _atom_site_type_symbol
 _atom_site_label
 _atom_site_symmetry_multiplicity
 _atom_site_fract_x
 _atom_site_fract_y
 _atom_site_fract_z
 _atom_site_occupancy
  Ti0+  Ti0  1  0.50000000  0.50000000  0.50000000  1.0
  Ti0+  Ti1  1  0.00000000  0.00000000  0.00000000  1.0
  Mn0+  Mn2  1  0.77900000  0.77900000  0.77900000  1.0
  Mn0+  Mn3  1  0.27900000  0.27900000  0.27900000  1.0
  O0+  O4  1  0.62000000  0.22100000  0.84800000  1.0
  O0+  O5  1  0.12000000  0.34800000  0.72100000  1.0
  O0+  O6  1  0.84800000  0.62000000  0.22100000  1.0
  O0+  O7  1  0.72100000  0.12000000  0.34800000  1.0
  O0+  O8  1  0.22100000  0.84800000  0.62000000  1.0
  O0+  O9  1  0.34800000  0.72100000  0.12000000  1.0
