# generated using pymatgen
data_TiO2
_symmetry_space_group_name_H-M   'P 1'
_cell_length_a   4.60920000
_cell_length_b   4.60920000
_cell_length_c   2.96730000
_cell_angle_alpha   90.00000000
_cell_angle_beta   90.00000000
_cell_angle_gamma   90.00000000
_symmetry_Int_Tables_number   1
_chemical_formula_structural   TiO2
_chemical_formula_sum   'Ti2 O4'
_cell_volume   63.03947142
_cell_formula_units_Z   2
loop_
 _symmetry_equiv_pos_site_id
 _symmetry_equiv_pos_as_xyz
  1  'x, y, z'
loop_
 _atom_type_symbol
 _atom_type_oxidation_number
  Ti3.928+  3.928
  O2-  -2.0
loop_
 _atom_site_type_symbol
 _atom_site_label
 _atom_site_symmetry_multiplicity
 _atom_site_fract_x
 _atom_site_fract_y
 _atom_site_fract_z
 _atom_site_occupancy
  Ti3.928+  Ti0  1  0.50000000  0.50000000  0.50000000  1.0
  Ti3.928+  Ti1  1  0.00000000  0.00000000  0.00000000  1.0
  O2-  O2  1  0.19580000  0.80420000  0.50000000  1.0
  O2-  O3  1  0.80420000  0.19580000  0.50000000  1.0
  O2-  O4  1  0.30420000  0.30420000  0.00000000  1.0
  O2-  O5  1  0.69580000  0.69580000  0.00000000  1.0
