# generated using pymatgen
data_LiTi
_symmetry_space_group_name_H-M   'P 1'
_cell_length_a   2.96100000
_cell_length_b   2.96100000
_cell_length_c   4.70766667
_cell_angle_alpha   90.00000000
_cell_angle_beta   90.00000000
_cell_angle_gamma   120.00000000
_symmetry_Int_Tables_number   1
_chemical_formula_structural   LiTi
_chemical_formula_sum   'Li1 Ti1'
_cell_volume   35.74482300
_cell_formula_units_Z   1
loop_
 _symmetry_equiv_pos_site_id
 _symmetry_equiv_pos_as_xyz
  1  'x, y, z'
loop_
 _atom_type_symbol
 _atom_type_oxidation_number
  Li0+  0.0
  Ti0+  0.0
loop_
 _atom_site_type_symbol
 _atom_site_label
 _atom_site_symmetry_multiplicity
 _atom_site_fract_x
 _atom_site_fract_y
 _atom_site_fract_z
 _atom_site_occupancy
  Li0+  Li0  1  0.333333  0.666667  0.250000  0.5
  Ti0+  Ti1  1  0.333333  0.666667  0.250000  0.5
  Li0+  Li2  1  0.666667  0.333333  0.750000  0.5
  Ti0+  Ti3  1  0.666667  0.333333  0.750000  0.5
