# generated using pymatgen
data_TiMnO4
_symmetry_space_group_name_H-M   'P 1'
_cell_length_a   4.54046667
_cell_length_b   4.81046667
_cell_length_c   2.93093333
_cell_angle_alpha   90.00000000
_cell_angle_beta   90.00000000
_cell_angle_gamma   90.00000000
_symmetry_Int_Tables_number   1
_chemical_formula_structural   TiMnO4
_chemical_formula_sum   'Ti1 Mn1 O4'
_cell_volume   64.01675285
_cell_formula_units_Z   1
loop_
 _symmetry_equiv_pos_site_id
 _symmetry_equiv_pos_as_xyz
  1  'x, y, z'
loop_
 _atom_type_symbol
 _atom_type_oxidation_number
  Ti0+  0.0
  Mn0+  0.0
  O0+  0.0
loop_
 _atom_site_type_symbol
 _atom_site_label
 _atom_site_symmetry_multiplicity
 _atom_site_fract_x
 _atom_site_fract_y
 _atom_site_fract_z
 _atom_site_occupancy
  Ti0+  Ti0  1  0.500000  0.500000  0.500000  0.5
  Mn0+  Mn1  1  0.500000  0.500000  0.500000  0.5
  Ti0+  Ti2  1  0.000000  0.000000  0.000000  0.5
  Mn0+  Mn3  1  0.000000  0.000000  0.000000  0.5
  O0+  O4  1  0.790667  0.184667  0.500000  1.0
  O0+  O5  1  0.209333  0.815333  0.500000  1.0
  O0+  O6  1  0.290667  0.315333  0.000000  1.0
  O0+  O7  1  0.709333  0.684667  0.000000  1.0
